$DATA1 SOURCE='PrimeSim HSPICE' VERSION='T-2022.06 linux64' PARAM_COUNT=0
.TITLE ''
 pwr              temper           alter#          
  2.287e-04         25.0000        1               
